[TITLE]
;;Project Title/Notes

[OPTIONS]
;;Option             Value
FLOW_UNITS           LPS
INFILTRATION         HORTON
FLOW_ROUTING         STEADY
LINK_OFFSETS         DEPTH
MIN_SLOPE            0
ALLOW_PONDING        NO
SKIP_STEADY_STATE    NO

IGNORE_QUALITY       YES
START_DATE           03/10/2017
START_TIME           00:00:00
REPORT_START_DATE    03/10/2017
REPORT_START_TIME    00:00:00
END_DATE             03/11/2017
END_TIME             00:00:00
SWEEP_START          01/01
SWEEP_END            12/31
DRY_DAYS             0
REPORT_STEP          00:05:00
WET_STEP             00:05:00
DRY_STEP             00:05:00
ROUTING_STEP         0:01:00 

INERTIAL_DAMPING     NONE
NORMAL_FLOW_LIMITED  BOTH
FORCE_MAIN_EQUATION  D-W
VARIABLE_STEP        0.75
LENGTHENING_STEP     0
MIN_SURFAREA         1.14
MAX_TRIALS           8
HEAD_TOLERANCE       0.0015
SYS_FLOW_TOL         5
LAT_FLOW_TOL         5
MINIMUM_STEP         0.5
THREADS              1

[EVAPORATION]
;;Data Source    Parameters
;;-------------- ----------------
CONSTANT         0.0
DRY_ONLY         NO

[RAINGAGES]
;;Name           Format    Interval SCF      Source    
;;-------------- --------- ------ ------ ----------
1                INTENSITY 0:05     1.0      FILE       "rainfall.dat"   10y25m     MM   

[SUBCATCHMENTS]
;;Name           Rain Gage        Outlet           Area     %Imperv  Width    %Slope   CurbLen  SnowPack        
;;-------------- ---------------- ---------------- -------- -------- -------- -------- -------- ----------------
1                1                N-8              0.00883  40       10       0.5      0                        
2                1                N-7              0.00425  40       5        0.5      0                        
3                1                N-6              0.4058   40       50       0.5      20                       
4                1                N-5              0.1661   40       20       0.5      0                        
5                1                N-4              0.00958  40       15       0.5      0                        
6                1                N-3              0.0526   40       15       0.5      0                        
7                1                N-2              0.04135  40       15       0.5      0                        
8                1                N-4              0.01918  40       10       0.5      0                        
9                1                N-1              0.0649   40       16       0.5      0                        

[SUBAREAS]
;;Subcatchment   N-Imperv   N-Perv     S-Imperv   S-Perv     PctZero    RouteTo    PctRouted 
;;-------------- ---------- ---------- ---------- ---------- ---------- ---------- ----------
1                0.01       0.1        0.05       0.05       25         OUTLET    
2                0.01       0.1        0.05       0.05       25         OUTLET    
3                0.01       0.1        0.05       0.05       25         OUTLET    
4                0.01       0.1        0.05       0.05       25         OUTLET    
5                0.01       0.1        0.05       0.05       25         OUTLET    
6                0.01       0.1        0.05       0.05       25         OUTLET    
7                0.01       0.1        0.05       0.05       25         OUTLET    
8                0.01       0.1        0.05       0.05       25         OUTLET    
9                0.01       0.1        0.05       0.05       25         OUTLET    

[INFILTRATION]
;;Subcatchment   MaxRate    MinRate    Decay      DryTime    MaxInfil  
;;-------------- ---------- ---------- ---------- ---------- ----------
1                0.0        0.0        0          0          0         
2                0.0        0.0        0          0          0         
3                0.0        0.0        0          0          0         
4                0.0        0.0        0          0          0         
5                0.0        0.0        0          0          0         
6                0.0        0.0        0          0          0         
7                0.0        0.0        0          0          0         
8                0.0        0.0        0          0          0         
9                0.0        0.0        0          0          0         

[JUNCTIONS]
;;Name           Elevation  MaxDepth   InitDepth  SurDepth   Aponded   
;;-------------- ---------- ---------- ---------- ---------- ----------
N-1              85.2       0          0          0          0         
N-2              86.3       0          0          0          0         
N-3              86.0       0          0          0          0         
N-4              85.1       0          0          0          0         
N-5              84.9       0          0          0          0         
N-7              82.8       0          0          0          0         
N-8              81.0       0          0          0          0         
N-6              83.5       0          0          0          0         

[OUTFALLS]
;;Name           Elevation  Type       Stage Data       Gated    Route To        
;;-------------- ---------- ---------- ---------------- -------- ----------------
DES-1            77.8       FREE                        NO                       

[CONDUITS]
;;Name           From Node        To Node          Length     Roughness  InOffset   OutOffset  InitFlow   MaxFlow   
;;-------------- ---------------- ---------------- ---------- ---------- ---------- ---------- ---------- ----------
C-1              N-1              N-4              16.974     0.013      0          0          0          0         
C-2              N-2              N-3              7.733      0.013      0          0          0          0         
C-3              N-3              N-4              9.058      0.013      0          0          0          0         
C-4              N-4              N-5              12.511     0.013      0          0          0          0         
C-5              N-6              N-7              9.202      0.013      0          0          0          0         
C-6              N-5              N-6              7.193      0.013      0          0          0          0         
C-7              N-7              N-8              9.155      0.013      0          0          0          0         
C-8              N-8              DES-1            21.947     0.013      0          0          0          0         

[XSECTIONS]
;;Link           Shape        Geom1            Geom2      Geom3      Geom4      Barrels    Culvert   
;;-------------- ------------ ---------------- ---------- ---------- ---------- ---------- ----------
C-1              CIRCULAR     0.45             0          0          0          1                    
C-2              CIRCULAR     0.45             0          0          0          1                    
C-3              CIRCULAR     0.45             0          0          0          1                    
C-4              CIRCULAR     0.45             0          0          0          1                    
C-5              CIRCULAR     0.45             0          0          0          1                    
C-6              CIRCULAR     0.45             0          0          0          1                    
C-7              CIRCULAR     0.45             0          0          0          1                    
C-8              CIRCULAR     0.45             0          0          0          1                    

[LOSSES]
;;Link           Kentry     Kexit      Kavg       Flap Gate  Seepage   
;;-------------- ---------- ---------- ---------- ---------- ----------
C-1              0.5        1          0          NO         0         
C-2              0.5        1          0          NO         0         
C-3              0.5        1          0          NO         0         
C-4              0.5        1          0          NO         0         
C-5              0.5        1          0          NO         0         
C-6              0.5        1          0          NO         0         
C-7              0.5        1          0          NO         0         
C-8              0.5        1          0          NO         0         

[REPORT]
;;Reporting Options
INPUT      YES
CONTROLS   YES
SUBCATCHMENTS ALL
NODES ALL
LINKS ALL

[TAGS]

[MAP]
DIMENSIONS 304880.000 6187710.000 305100.000 6187890.000
Units      None

[COORDINATES]
;;Node           X-Coord            Y-Coord           
;;-------------- ------------------ ------------------
N-1              304947.980         6187756.210       
N-2              304957.590         6187760.550       
N-3              304955.790         6187768.070       
N-4              304950.760         6187771.510       
N-5              304948.610         6187785.370       
N-7              304932.770         6187789.570       
N-8              304923.850         6187791.630       
N-6              304939.844         6187788.287       
DES-1            304902.100         6187794.560       

[VERTICES]
;;Link           X-Coord            Y-Coord           
;;-------------- ------------------ ------------------

[Polygons]
;;Subcatchment   X-Coord            Y-Coord           
;;-------------- ------------------ ------------------
1                304923.856         6187791.634       
1                304938.488         6187780.212       
1                304938.848         6187782.358       
1                304932.776         6187789.572       
1                304940.511         6187794.371       
1                304940.721         6187796.236       
1                304923.856         6187791.634       
2                304932.776         6187789.572       
2                304938.848         6187782.358       
2                304940.511         6187794.371       
2                304932.776         6187789.572       
3                304939.789         6187787.967       
3                304941.777         6187805.597       
3                305020.659         6187826.748       
3                305050.102         6187795.415       
3                305044.906         6187775.577       
3                304948.620         6187785.378       
3                304948.116         6187772.926       
3                304945.914         6187756.045       
3                304943.653         6187748.981       
3                304933.676         6187751.515       
3                304939.789         6187787.967       
4                304948.620         6187785.378       
4                304948.114         6187772.877       
4                304955.796         6187768.076       
4                305041.127         6187756.998       
4                305044.906         6187775.577       
4                304948.620         6187785.378       
5                304977.140         6187758.077       
5                304957.598         6187760.556       
5                304948.114         6187772.877       
5                304955.796         6187768.076       
5                304977.140         6187758.077       
6                304955.796         6187768.076       
6                305041.127         6187756.998       
6                305039.028         6187750.228       
6                304977.140         6187758.077       
6                304955.796         6187768.076       
7                304957.598         6187760.556       
7                305039.028         6187750.228       
7                305032.572         6187744.874       
7                304978.641         6187751.826       
7                304957.598         6187760.556       
8                304948.114         6187772.877       
8                304957.598         6187760.556       
8                304978.641         6187751.826       
8                304945.914         6187756.045       
8                304948.114         6187772.877       
9                304945.914         6187756.045       
9                305032.572         6187744.874       
9                305031.942         6187737.474       
9                304943.653         6187748.981       
9                304945.914         6187756.045       

[SYMBOLS]
;;Gage           X-Coord            Y-Coord           
;;-------------- ------------------ ------------------
1                304992.102         6187783.682       


[PROFILES]
;;Name           Links     
;;-------------- ----------
"main            " C-8 C-7 C-5 C-6 C-4
"main            " C-1
